  FAST_Registry.vcxproj -> C:\Users\DELL\source\repos\mySolver\OpenFAST_WAT_distKxr_improved\build\bin\Registry.exe
