  MAP_dll.vcxproj -> C:\Users\DELL\source\repos\mySolver\OpenFAST_WAT_distKxr_improved\build\bin\MAP_x64.dll
